<?xml version="1.0" encoding="UTF-8"?>

<!-- generated on 2025-10-31 15:02:25 by Eclipse SUMO netconvert Version 1.24.0
<netconvertConfiguration xmlns:xsi="http://www.w3.org/2001/XMLSchema-instance" xsi:noNamespaceSchemaLocation="http://sumo.dlr.de/xsd/netconvertConfiguration.xsd">

    <input>
        <node-files value="ramp.nod.xml"/>
        <edge-files value="ramp.edg.xml"/>
    </input>

    <output>
        <output-file value="ramp.net.xml"/>
    </output>

</netconvertConfiguration>
-->

<net version="1.20" junctionCornerDetail="5" limitTurnSpeed="5.50" xmlns:xsi="http://www.w3.org/2001/XMLSchema-instance" xsi:noNamespaceSchemaLocation="http://sumo.dlr.de/xsd/net_file.xsd">

    <location netOffset="0.00,120.00" convBoundary="0.00,0.00,1500.00,120.00" origBoundary="0.00,-120.00,1500.00,0.00" projParameter="!"/>

    <edge id=":N1_0" function="internal">
        <lane id=":N1_0_0" index="0" speed="6.95" length="4.91" shape="493.74,109.99 494.64,110.87 495.65,111.50 496.79,111.87 498.04,112.00"/>
    </edge>
    <edge id=":N1_1" function="internal">
        <lane id=":N1_1_0" index="0" speed="33.33" length="5.25" shape="492.79,115.20 498.04,115.20"/>
        <lane id=":N1_1_1" index="1" speed="33.33" length="5.25" shape="492.79,118.40 498.04,118.40"/>
    </edge>
    <edge id=":N1A_0" function="internal">
        <lane id=":N1A_0_0" index="0" speed="33.33" length="8.00" shape="896.00,115.20 904.00,115.20"/>
        <lane id=":N1A_0_1" index="1" speed="33.33" length="8.00" shape="896.00,118.40 904.00,118.40"/>
    </edge>

    <edge id="main_0" from="N0" to="N1" priority="3">
        <lane id="main_0_0" index="0" speed="33.33" length="492.79" shape="0.00,115.20 492.79,115.20"/>
        <lane id="main_0_1" index="1" speed="33.33" length="492.79" shape="0.00,118.40 492.79,118.40"/>
    </edge>
    <edge id="main_1a" from="N1" to="N1A" priority="3">
        <lane id="main_1a_0" index="0" speed="33.33" length="397.96" acceleration="1" shape="498.04,112.00 896.00,112.00"/>
        <lane id="main_1a_1" index="1" speed="33.33" length="397.96" shape="498.04,115.20 896.00,115.20"/>
        <lane id="main_1a_2" index="2" speed="33.33" length="397.96" shape="498.04,118.40 896.00,118.40"/>
    </edge>
    <edge id="main_1b" from="N1A" to="N2" priority="3">
        <lane id="main_1b_0" index="0" speed="33.33" length="596.00" shape="904.00,115.20 1500.00,115.20"/>
        <lane id="main_1b_1" index="1" speed="33.33" length="596.00" shape="904.00,118.40 1500.00,118.40"/>
    </edge>
    <edge id="ramp_0" from="R0" to="N1" priority="1">
        <lane id="ramp_0_0" index="0" speed="22.22" length="144.50" shape="401.23,-1.02 493.74,109.99"/>
    </edge>

    <junction id="N0" type="dead_end" x="0.00" y="120.00" incLanes="" intLanes="" shape="0.00,120.00 0.00,113.60"/>
    <junction id="N1" type="priority" x="500.00" y="120.00" incLanes="ramp_0_0 main_0_0 main_0_1" intLanes=":N1_0_0 :N1_1_0 :N1_1_1" shape="498.04,120.00 498.04,110.40 496.86,110.24 496.33,110.04 495.84,109.76 495.38,109.40 494.97,108.96 492.51,111.01 493.50,112.45 493.66,112.95 493.59,113.31 493.31,113.53 492.79,113.60 492.79,120.00">
        <request index="0" response="000" foes="000" cont="0"/>
        <request index="1" response="000" foes="000" cont="0"/>
        <request index="2" response="000" foes="000" cont="0"/>
    </junction>
    <junction id="N1A" type="priority" x="900.00" y="120.00" incLanes="main_1a_0 main_1a_1 main_1a_2" intLanes=":N1A_0_0 :N1A_0_1" shape="904.00,120.00 904.00,113.60 900.97,112.77 899.03,111.23 897.79,110.64 896.00,110.40 896.00,120.00">
        <request index="0" response="00" foes="00" cont="0"/>
        <request index="1" response="00" foes="00" cont="0"/>
    </junction>
    <junction id="N2" type="dead_end" x="1500.00" y="120.00" incLanes="main_1b_0 main_1b_1" intLanes="" shape="1500.00,113.60 1500.00,120.00"/>
    <junction id="R0" type="dead_end" x="400.00" y="0.00" incLanes="" intLanes="" shape="400.00,0.00 402.46,-2.05"/>

    <connection from="main_0" to="main_1a" fromLane="0" toLane="1" via=":N1_1_0" dir="s" state="M"/>
    <connection from="main_0" to="main_1a" fromLane="1" toLane="2" via=":N1_1_1" dir="s" state="M"/>
    <connection from="main_1a" to="main_1b" fromLane="1" toLane="0" via=":N1A_0_0" dir="s" state="M"/>
    <connection from="main_1a" to="main_1b" fromLane="2" toLane="1" via=":N1A_0_1" dir="s" state="M"/>
    <connection from="ramp_0" to="main_1a" fromLane="0" toLane="0" via=":N1_0_0" dir="r" state="M"/>

    <connection from=":N1_0" to="main_1a" fromLane="0" toLane="0" dir="r" state="M"/>
    <connection from=":N1_1" to="main_1a" fromLane="0" toLane="1" dir="s" state="M"/>
    <connection from=":N1_1" to="main_1a" fromLane="1" toLane="2" dir="s" state="M"/>
    <connection from=":N1A_0" to="main_1b" fromLane="0" toLane="0" dir="s" state="M"/>
    <connection from=":N1A_0" to="main_1b" fromLane="1" toLane="1" dir="s" state="M"/>

</net>
