<additional>

<!--
<edgeData id="1" type="emissions" freq="1800" file="emissions.xml" excludeEmpty="true" end="1800" withInternal="true"/>
              !-->

<vType id="intelligent_driver" carFollowModel="EIDM" laneChangeModel="LC2013" minGap="2.0"/>

</additional>
