<?xml version="1.0" encoding="UTF-8"?>
<configuration>
  <input>
    <net-file value="ramp.net.xml"/>
    <route-files value="ramp.rou.xml"/>
      <additional-files value="input_additional.add.xml"/>
  </input>

  <time>
    <begin value="0"/>
    <end value="900"/>
    <step-length value="0.2"/>
  </time>

  <report>
    <no-step-log value="true"/>
  </report>

  
</configuration>
